Inverting Op-Amp from EE1 Term 2 Labs
QT2[3] 012 0 014 0 2N2907
QT1[3] 016 001 014 0 2N2907
QT2[1] 006 006 003 0 2N2907
QT1[1] 008 006 003 0 2N2907
QT2[2] 014 008 006 0 2N2907
R1 008 017 8.3k
QT2[4] 012 016 017 0 2N2222
QT1[4] 016 016 017 0 2N2222
QT2[6] 011 015 017 0 2N2222
V-Vcc 017 0 -5
QT1[5] 005 005 003 0 2N2907
QT2[5] 004 005 003 0 2N2907
R2 005 017 9.3k
R3 015 017 1.5k
QT1[6] 011 012 015 0 2N2222
QT1[7] 004 004 010 0 2N2222
QT2[7] 003 004 007 0 2N2222
QT2[8] 004 007 002 0 2N2222
RCL1 002 007 2
RCL2 009 002 2
QT1[2] 011 009 002 0 2N2907
QT1[9] 011 011 010 0 2N2907
QT2[9] 017 011 009 0 2N2907
V+Vcc 003 0 5
C 011 012 10p
Vin 013 0 SIN(0 5m 1k)
Rf 002 001 25k
Rin 001 013 5k
.model 2N2222 NPN (IS=0.01p VAF=100 BF=200 IKF=0.3 XTB=1.5 BR=3 CJC=8p CJE=25p TR=100n TF=400p ITF=1 VTF=2 XTF=3 RB=10 RC=0.3 RE=0.2 Vceo=30 Icrating=800m)
.model 2N2907 PNP (IS=0.01p VAF=120 BF=250 IKF=0.3 XTB=1.5 BR=3 CJC=8p CJE=30p TR=100n TF=400p ITF=1 VTF=2 XTF=3 RB=0.3 RC=0.3 RE=0.2 Vceo=40 Icrating=600m)